<additional>

<!--
<edgeData id="1" type="emissions" freq="1800" file="emissions.xml" excludeEmpty="true" end="1800" withInternal="true"/>
              !-->

<vType id="petrol_mode" carFollowModel="EIDM" laneChangeModel="LC2013" minGap="2.0" emissionClass="HBEFA4/PC_PHEV_petrol_Euro-4_(P)"/>
<vType id="electric_mode" carFollowModel="EIDM" laneChangeModel="LC2013" minGap="2.0" emissionClass="HBEFA4/PC_PHEV_petrol_Euro-4_(El)"/>

</additional>
