<?xml version="1.0" encoding="UTF-8"?>

<!-- generated on 2023-10-25 04:10:20 by Eclipse SUMO netedit Version 1.18.0
<configuration xmlns:xsi="http://www.w3.org/2001/XMLSchema-instance" xsi:noNamespaceSchemaLocation="http://sumo.dlr.de/xsd/neteditConfiguration.xsd">

    <input>
        <sumo-net-file value="D:\Projekt_palyazat\Eureka_Graz_BME\SUMO_simulation\M1-M7.net.xml"/>
    </input>

    <output>
        <output-file value="D:\Projekt_palyazat\Eureka_Graz_BME\SUMO_simulation\M1-M7.net.xml"/>
    </output>

    <processing>
        <geometry.min-radius.fix.railways value="false"/>
        <geometry.max-grade.fix value="false"/>
        <offset.disable-normalization value="true"/>
        <lefthand value="0"/>
    </processing>

    <junctions>
        <no-turnarounds value="true"/>
        <junctions.corner-detail value="5"/>
        <junctions.limit-turn-speed value="5.50"/>
        <rectangular-lane-cut value="1"/>
    </junctions>

    <pedestrian>
        <walkingareas value="0"/>
    </pedestrian>

</configuration>
-->

<net version="1.16" junctionCornerDetail="5" rectangularLaneCut="true" limitTurnSpeed="5.50" xmlns:xsi="http://www.w3.org/2001/XMLSchema-instance" xsi:noNamespaceSchemaLocation="http://sumo.dlr.de/xsd/net_file.xsd">

    <location netOffset="2106.07,308.67" convBoundary="0.00,0.00,4212.02,655.60" origBoundary="0.000000,0.000000,0.000000,0.000000" projParameter="+proj=tmerc +lat_0=47.45476641079265 +lon_0=18.95590834981241 +k=1 +x_0=0 +y_0=0 +datum=WGS84 +units=m  +vunits=m +no_defs "/>

    <edge id=":12#1_0" function="internal">
        <lane id=":12#1_0_0" index="0" disallow="pedestrian tram rail_urban rail rail_electric rail_fast ship" speed="27.78" length="8.04" width="3.89" shape="3137.07,177.95,168.29 3144.69,180.57,168.33"/>
        <lane id=":12#1_0_1" index="1" disallow="pedestrian tram rail_urban rail rail_electric rail_fast ship" speed="27.78" length="8.04" width="3.58" shape="3135.84,181.56,168.29 3143.47,184.11,168.33"/>
        <lane id=":12#1_0_2" index="2" disallow="pedestrian tram rail_urban rail rail_electric rail_fast ship" speed="27.78" length="8.04" width="3.71" shape="3134.68,185.01,168.29 3142.29,187.55,168.33"/>
    </edge>
    <edge id=":15#1_0" function="internal">
        <lane id=":15#1_0_0" index="0" disallow="pedestrian tram rail_urban rail rail_electric rail_fast ship" speed="27.78" length="2.74" width="2.93" shape="803.89,31.46,179.45 803.07,31.33,179.46 802.54,31.05,179.47 802.02,30.78,179.47 801.20,30.64,179.48"/>
        <lane id=":15#1_0_1" index="1" disallow="pedestrian tram rail_urban rail rail_electric rail_fast ship" speed="27.78" length="2.74" width="3.50" shape="803.93,27.85,179.45 803.13,27.78,179.46 802.59,27.64,179.47 802.04,27.50,179.47 801.24,27.43,179.48"/>
        <lane id=":15#1_0_2" index="2" disallow="pedestrian tram rail_urban rail rail_electric rail_fast ship" speed="27.78" length="2.74" width="3.70" shape="803.98,24.14,179.45 803.17,24.09,179.46 802.63,23.99,179.47 802.08,23.88,179.47 801.28,23.83,179.48"/>
        <lane id=":15#1_0_3" index="3" disallow="pedestrian tram rail_urban rail rail_electric rail_fast ship" speed="27.78" length="2.74" width="3.20" shape="804.02,20.58,179.45 801.32,20.38,179.48"/>
        <lane id=":15#1_0_4" index="4" disallow="pedestrian tram rail_urban rail rail_electric rail_fast ship" speed="27.78" length="2.74" width="3.65" shape="804.06,17.01,179.45 801.36,16.95,179.48"/>
    </edge>
    <edge id=":16.1_0" function="internal">
        <lane id=":16.1_0_0" index="0" disallow="pedestrian tram rail_urban rail rail_electric rail_fast ship" speed="27.78" length="0.30" width="3.48" shape="1536.25,3.04,172.54 1536.55,3.04,172.54"/>
        <lane id=":16.1_0_1" index="1" disallow="pedestrian tram rail_urban rail rail_electric rail_fast ship" speed="27.78" length="0.30" width="3.56" shape="1536.31,6.56,172.54 1536.62,6.56,172.54"/>
    </edge>
    <edge id=":17#1_0" function="internal">
        <lane id=":17#1_0_0" index="0" disallow="pedestrian tram rail_urban rail rail_electric rail_fast ship" speed="27.78" length="3.06" width="1.80" shape="2553.87,35.90,167.56 2554.72,36.23,167.56 2555.22,36.68,167.56 2555.71,37.13,167.56 2556.56,37.46,167.56"/>
        <lane id=":17#1_0_1" index="1" disallow="pedestrian tram rail_urban rail rail_electric rail_fast ship" speed="27.78" length="3.06" width="3.46" shape="2553.19,39.31,167.56 2556.05,40.04,167.56"/>
    </edge>
    <edge id=":18.11_0" function="internal">
        <lane id=":18.11_0_0" index="0" disallow="pedestrian tram rail_urban rail rail_electric rail_fast ship" speed="27.78" length="3.04" width="4.05" shape="3182.90,189.49,168.76 3183.73,189.84,168.77 3184.27,190.14,168.77 3184.81,190.44,168.78 3185.64,190.78,168.79"/>
    </edge>
    <edge id=":2#1_0" function="internal">
        <lane id=":2#1_0_0" index="0" disallow="pedestrian tram rail_urban rail rail_electric rail_fast ship" speed="27.78" length="3.10" width="2.91" shape="3569.56,388.80,173.70 3566.05,389.29,173.65"/>
        <lane id=":2#1_0_1" index="1" disallow="pedestrian tram rail_urban rail rail_electric rail_fast ship" speed="27.78" length="3.10" width="3.62" shape="3570.48,386.74,173.70 3569.60,386.50,173.68 3568.94,386.53,173.67 3568.27,386.56,173.67 3567.39,386.31,173.65"/>
        <lane id=":2#1_0_2" index="2" disallow="pedestrian tram rail_urban rail rail_electric rail_fast ship" speed="27.78" length="3.10" width="3.78" shape="3571.64,384.16,173.70 3568.91,382.94,173.65"/>
        <lane id=":2#1_0_3" index="3" disallow="pedestrian tram rail_urban rail rail_electric rail_fast ship" speed="27.78" length="3.10" width="3.68" shape="3573.18,380.72,173.70 3570.44,379.54,173.65"/>
        <lane id=":2#1_0_4" index="4" disallow="pedestrian tram rail_urban rail rail_electric rail_fast ship" speed="27.78" length="3.10" width="3.54" shape="3574.66,377.42,173.70 3571.93,376.24,173.65"/>
        <lane id=":2#1_0_5" index="5" disallow="pedestrian tram rail_urban rail rail_electric rail_fast ship" speed="27.78" length="3.10" width="3.67" shape="3576.12,374.15,173.70 3573.41,372.96,173.65"/>
    </edge>
    <edge id=":2#2_0" function="internal">
        <lane id=":2#2_0_0" index="0" disallow="pedestrian tram rail_urban rail rail_electric rail_fast ship" speed="27.78" length="7.93" width="3.62" shape="3140.78,211.37,168.53 3133.37,208.47,168.46"/>
        <lane id=":2#2_0_1" index="1" disallow="pedestrian tram rail_urban rail rail_electric rail_fast ship" speed="27.78" length="7.93" width="3.56" shape="3141.95,207.86,168.53 3134.52,205.07,168.46"/>
        <lane id=":2#2_0_2" index="2" disallow="pedestrian tram rail_urban rail rail_electric rail_fast ship" speed="27.78" length="7.93" width="3.62" shape="3143.13,204.32,168.53 3135.66,201.66,168.46"/>
        <lane id=":2#2_0_3" index="3" disallow="pedestrian tram rail_urban rail rail_electric rail_fast ship" speed="27.78" length="7.93" width="3.44" shape="3144.27,200.90,168.53 3136.79,198.32,168.46"/>
        <lane id=":2#2_0_4" index="4" disallow="pedestrian tram rail_urban rail rail_electric rail_fast ship" speed="27.78" length="7.93" width="3.67" shape="3145.41,197.48,168.53 3137.92,194.95,168.46"/>
    </edge>
    <edge id=":2.0_0" function="internal">
        <lane id=":2.0_0_0" index="0" disallow="pedestrian tram rail_urban rail rail_electric rail_fast ship" speed="27.78" length="3.00" width="3.54" shape="3062.30,185.39,168.15 3059.41,184.45,168.13"/>
        <lane id=":2.0_0_1" index="1" disallow="pedestrian tram rail_urban rail rail_electric rail_fast ship" speed="27.78" length="3.00" width="3.50" shape="3063.35,181.96,168.15 3060.46,181.09,168.13"/>
        <lane id=":2.0_0_2" index="2" disallow="pedestrian tram rail_urban rail rail_electric rail_fast ship" speed="27.78" length="3.00" width="3.64" shape="3064.41,178.53,168.15 3061.53,177.69,168.13"/>
        <lane id=":2.0_0_3" index="3" disallow="pedestrian tram rail_urban rail rail_electric rail_fast ship" speed="27.78" length="3.00" width="3.51" shape="3065.45,175.16,168.15 3062.60,174.27,168.13"/>
        <lane id=":2.0_0_4" index="4" disallow="pedestrian tram rail_urban rail rail_electric rail_fast ship" speed="27.78" length="3.00" width="3.64" shape="3066.50,171.76,168.15 3063.68,170.86,168.13"/>
    </edge>
    <edge id=":20#1_0" function="internal">
        <lane id=":20#1_0_0" index="0" disallow="pedestrian tram rail_urban rail rail_electric rail_fast ship" speed="27.78" length="7.30" width="2.28" shape="2915.13,108.84,167.49 2917.22,109.48,167.49 2918.60,110.11,167.50 2919.97,110.75,167.50 2922.06,111.41,167.50"/>
        <lane id=":20#1_0_1" index="1" disallow="pedestrian tram rail_urban rail rail_electric rail_fast ship" speed="27.78" length="7.30" width="3.78" shape="2914.27,112.37,167.49 2921.31,114.34,167.50"/>
        <lane id=":20#1_0_2" index="2" disallow="pedestrian tram rail_urban rail rail_electric rail_fast ship" speed="27.78" length="7.30" width="3.71" shape="2913.37,116.04,167.49 2920.38,117.97,167.50"/>
        <lane id=":20#1_0_3" index="3" disallow="pedestrian tram rail_urban rail rail_electric rail_fast ship" speed="27.78" length="7.30" width="3.64" shape="2912.49,119.64,167.49 2919.47,121.53,167.50"/>
    </edge>
    <edge id=":20#2_0" function="internal">
        <lane id=":20#2_0_0" index="0" allow="emergency authority" speed="27.78" length="3.84" width="3.50" shape="2928.70,111.18,167.52 2929.94,111.13,167.52 2930.78,110.54,167.53 2931.61,109.95,167.53 2932.85,109.91,167.53"/>
        <lane id=":20#2_0_1" index="1" disallow="pedestrian tram rail_urban rail rail_electric rail_fast ship" speed="27.78" length="3.84" width="3.50" shape="2928.24,113.00,167.52 2929.33,113.17,167.52 2930.10,113.14,167.53 2930.88,113.11,167.53 2931.97,113.29,167.53"/>
        <lane id=":20#2_0_2" index="2" disallow="pedestrian tram rail_urban rail rail_electric rail_fast ship" speed="27.78" length="3.84" width="3.83" shape="2927.49,115.93,167.52 2931.04,116.84,167.53"/>
        <lane id=":20#2_0_3" index="3" disallow="pedestrian tram rail_urban rail rail_electric rail_fast ship" speed="27.78" length="3.84" width="3.70" shape="2926.57,119.56,167.52 2930.09,120.48,167.53"/>
        <lane id=":20#2_0_4" index="4" disallow="pedestrian tram rail_urban rail rail_electric rail_fast ship" speed="27.78" length="3.84" width="3.64" shape="2925.66,123.13,167.52 2929.16,124.03,167.53"/>
    </edge>
    <edge id=":20#3_0" function="internal">
        <lane id=":20#3_0_0" index="0" disallow="pedestrian tram rail_urban rail rail_electric rail_fast ship" speed="27.78" length="3.00" width="2.66" shape="2942.78,112.46,167.54 2943.62,112.73,167.54 2944.17,112.97,167.55 2944.73,113.21,167.55 2945.57,113.47,167.55"/>
        <lane id=":20#3_0_1" index="1" speed="27.78" length="3.00" width="3.50" shape="2941.90,115.85,167.54 2944.82,116.46,167.55"/>
        <lane id=":20#3_0_2" index="2" disallow="pedestrian tram rail_urban rail rail_electric rail_fast ship" speed="27.78" length="3.00" width="3.98" shape="2940.99,119.40,167.54 2943.90,120.09,167.55"/>
        <lane id=":20#3_0_3" index="3" disallow="pedestrian tram rail_urban rail rail_electric rail_fast ship" speed="27.78" length="3.00" width="3.68" shape="2940.04,123.05,167.54 2942.96,123.80,167.55"/>
        <lane id=":20#3_0_4" index="4" disallow="pedestrian tram rail_urban rail rail_electric rail_fast ship" speed="27.78" length="3.00" width="3.64" shape="2939.13,126.60,167.54 2942.07,127.35,167.55"/>
    </edge>
    <edge id=":20.12_0" function="internal">
        <lane id=":20.12_0_0" index="0" disallow="pedestrian tram rail_urban rail rail_electric rail_fast ship" speed="27.78" length="7.86" width="2.65" shape="2973.50,124.37,167.58 2980.96,126.90,167.60"/>
        <lane id=":20.12_0_1" index="1" disallow="pedestrian tram rail_urban rail rail_electric rail_fast ship" speed="27.78" length="7.86" width="3.98" shape="2972.52,127.97,167.58 2980.08,130.09,167.60"/>
        <lane id=":20.12_0_2" index="2" disallow="pedestrian tram rail_urban rail rail_electric rail_fast ship" speed="27.78" length="7.86" width="3.65" shape="2971.51,131.67,167.58 2979.07,133.77,167.60"/>
        <lane id=":20.12_0_3" index="3" disallow="pedestrian tram rail_urban rail rail_electric rail_fast ship" speed="27.78" length="7.86" width="3.63" shape="2970.54,135.20,167.58 2978.10,137.28,167.60"/>
    </edge>
    <edge id=":25.17_0" function="internal">
        <lane id=":25.17_0_0" index="0" disallow="pedestrian tram rail_urban rail rail_electric rail_fast ship" speed="27.78" length="7.98" width="3.43" shape="2582.32,44.96,167.52 2590.17,46.36,167.50"/>
    </edge>
    <edge id=":26.14_0" function="internal">
        <lane id=":26.14_0_0" index="0" allow="emergency authority" speed="27.78" length="3.00" width="3.59" shape="3972.86,565.69,180.90 3970.11,564.52,180.86"/>
        <lane id=":26.14_0_1" index="1" disallow="pedestrian tram rail_urban rail rail_electric rail_fast ship" speed="27.78" length="3.00" width="3.78" shape="3974.37,562.28,180.90 3971.60,561.15,180.86"/>
        <lane id=":26.14_0_2" index="2" disallow="pedestrian tram rail_urban rail rail_electric rail_fast ship" speed="27.78" length="3.00" width="3.50" shape="3975.82,559.02,180.90 3973.07,557.82,180.86"/>
        <lane id=":26.14_0_3" index="3" disallow="pedestrian tram rail_urban rail rail_electric rail_fast ship" speed="27.78" length="3.00" width="3.59" shape="3977.26,555.79,180.90 3974.50,554.58,180.86"/>
    </edge>
    <edge id=":27#1_0" function="internal">
        <lane id=":27#1_0_0" index="0" disallow="pedestrian tram rail_urban rail rail_electric rail_fast ship" speed="27.78" length="3.12" width="3.50" shape="1048.47,-2.34,177.10 1051.58,-2.14,177.07"/>
        <lane id=":27#1_0_1" index="1" disallow="pedestrian tram rail_urban rail rail_electric rail_fast ship" speed="27.78" length="3.12" width="3.47" shape="1048.42,1.24,177.10 1051.54,1.34,177.07"/>
        <lane id=":27#1_0_2" index="2" disallow="pedestrian tram rail_urban rail rail_electric rail_fast ship" speed="27.78" length="3.12" width="3.70" shape="1048.38,4.86,177.10 1051.49,4.93,177.07"/>
        <lane id=":27#1_0_3" index="3" disallow="pedestrian tram rail_urban rail rail_electric rail_fast ship" speed="27.78" length="3.12" width="3.50" shape="1048.33,8.46,177.10 1051.45,8.53,177.07"/>
        <lane id=":27#1_0_4" index="4" disallow="pedestrian tram rail_urban rail rail_electric rail_fast ship" speed="27.78" length="3.12" width="3.32" shape="1048.29,11.88,177.10 1051.40,11.94,177.07"/>
    </edge>
    <edge id=":27#2_0" function="internal">
        <lane id=":27#2_0_0" index="0" disallow="pedestrian tram rail_urban rail rail_electric rail_fast ship" speed="27.78" length="3.00" width="3.60" shape="1055.44,-2.09,177.04 1058.44,-2.08,177.02"/>
        <lane id=":27#2_0_1" index="1" disallow="pedestrian tram rail_urban rail rail_electric rail_fast ship" speed="27.78" length="3.00" width="3.46" shape="1055.39,1.40,177.04 1058.39,1.45,177.02"/>
        <lane id=":27#2_0_2" index="2" disallow="pedestrian tram rail_urban rail rail_electric rail_fast ship" speed="27.78" length="3.00" width="3.70" shape="1055.34,4.98,177.04 1058.34,5.03,177.02"/>
        <lane id=":27#2_0_3" index="3" disallow="pedestrian tram rail_urban rail rail_electric rail_fast ship" speed="27.78" length="3.00" width="3.51" shape="1055.28,8.58,177.04 1058.28,8.63,177.02"/>
        <lane id=":27#2_0_4" index="4" disallow="pedestrian tram rail_urban rail rail_electric rail_fast ship" speed="27.78" length="3.00" width="3.31" shape="1055.23,11.99,177.04 1058.23,12.04,177.02"/>
    </edge>
    <edge id=":27#3_0" function="internal">
        <lane id=":27#3_0_0" index="0" disallow="pedestrian tram rail_urban rail rail_electric rail_fast ship" speed="27.78" length="3.10" width="3.71" shape="1064.60,-2.00,176.96 1067.70,-2.04,176.93"/>
        <lane id=":27#3_0_1" index="1" disallow="pedestrian tram rail_urban rail rail_electric rail_fast ship" speed="27.78" length="3.10" width="3.47" shape="1064.55,1.53,176.96 1067.65,1.55,176.93"/>
        <lane id=":27#3_0_2" index="2" disallow="pedestrian tram rail_urban rail rail_electric rail_fast ship" speed="27.78" length="3.10" width="3.70" shape="1064.50,5.11,176.96 1067.60,5.13,176.93"/>
        <lane id=":27#3_0_3" index="3" disallow="pedestrian tram rail_urban rail rail_electric rail_fast ship" speed="27.78" length="3.10" width="3.54" shape="1064.44,8.71,176.96 1067.54,8.75,176.93"/>
        <lane id=":27#3_0_4" index="4" disallow="pedestrian tram rail_urban rail rail_electric rail_fast ship" speed="27.78" length="3.10" width="3.30" shape="1064.39,12.12,176.96 1067.49,12.17,176.93"/>
    </edge>
    <edge id=":27.23_0" function="internal">
        <lane id=":27.23_0_0" index="0" disallow="pedestrian tram rail_urban rail rail_electric rail_fast ship" speed="27.78" length="3.15" width="3.55" shape="1008.80,0.86,177.47 1011.97,0.78,177.44"/>
        <lane id=":27.23_0_1" index="1" disallow="pedestrian tram rail_urban rail rail_electric rail_fast ship" speed="27.78" length="3.15" width="3.70" shape="1008.76,4.46,177.47 1011.92,4.40,177.44"/>
        <lane id=":27.23_0_2" index="2" disallow="pedestrian tram rail_urban rail rail_electric rail_fast ship" speed="27.78" length="3.15" width="3.49" shape="1008.73,8.00,177.47 1011.86,8.00,177.44"/>
        <lane id=":27.23_0_3" index="3" disallow="pedestrian tram rail_urban rail rail_electric rail_fast ship" speed="27.78" length="3.15" width="3.36" shape="1008.69,11.40,177.47 1011.81,11.42,177.44"/>
    </edge>
    <edge id=":27.24_0" function="internal">
        <lane id=":27.24_0_0" index="0" disallow="pedestrian tram rail_urban rail rail_electric rail_fast ship" speed="27.78" length="3.00" width="3.67" shape="1187.87,-0.44,175.85 1190.89,-0.37,175.82"/>
        <lane id=":27.24_0_1" index="1" disallow="pedestrian tram rail_urban rail rail_electric rail_fast ship" speed="27.78" length="3.00" width="3.52" shape="1187.83,3.15,175.85 1190.83,3.22,175.82"/>
        <lane id=":27.24_0_2" index="2" disallow="pedestrian tram rail_urban rail rail_electric rail_fast ship" speed="27.78" length="3.00" width="3.64" shape="1187.78,6.73,175.85 1190.78,6.80,175.82"/>
        <lane id=":27.24_0_3" index="3" disallow="pedestrian tram rail_urban rail rail_electric rail_fast ship" speed="27.78" length="3.00" width="3.54" shape="1187.73,10.35,175.85 1190.73,10.39,175.82"/>
        <lane id=":27.24_0_4" index="4" disallow="pedestrian tram rail_urban rail rail_electric rail_fast ship" speed="27.78" length="3.00" width="3.30" shape="1187.69,13.77,175.85 1190.67,13.81,175.82"/>
    </edge>
    <edge id=":29#1_0" function="internal">
        <lane id=":29#1_0_0" index="0" disallow="pedestrian tram rail_urban rail rail_electric rail_fast ship" speed="27.78" length="8.00" width="3.58" shape="1458.92,39.30,173.15 1451.02,38.07,173.23"/>
    </edge>
    <edge id=":31#1_0" function="internal">
        <lane id=":31#1_0_0" index="0" disallow="pedestrian tram rail_urban rail rail_electric rail_fast ship" speed="27.78" length="7.98" width="3.67" shape="3218.07,202.73,168.84 3225.54,205.54,168.90"/>
        <lane id=":31#1_0_1" index="1" disallow="pedestrian tram rail_urban rail rail_electric rail_fast ship" speed="27.78" length="7.98" width="3.71" shape="3216.79,206.22,168.85 3224.27,209.00,168.90"/>
        <lane id=":31#1_0_2" index="2" disallow="pedestrian tram rail_urban rail rail_electric rail_fast ship" speed="27.78" length="7.98" width="3.63" shape="3215.52,209.69,168.85 3223.00,212.45,168.90"/>
        <lane id=":31#1_0_3" index="3" disallow="pedestrian tram rail_urban rail rail_electric rail_fast ship" speed="27.78" length="7.98" width="3.61" shape="3214.27,213.09,168.85 3221.75,215.85,168.90"/>
    </edge>
    <edge id=":31#2_0" function="internal">
        <lane id=":31#2_0_0" index="0" allow="emergency authority" speed="27.78" length="3.95" width="2.43" shape="3239.14,207.71,169.01 3240.26,208.07,169.03 3241.06,208.24,169.04 3241.86,208.40,169.05 3242.98,208.77,169.06"/>
        <lane id=":31#2_0_1" index="1" disallow="pedestrian tram rail_urban rail rail_electric rail_fast ship" speed="27.78" length="3.95" width="3.63" shape="3238.17,210.26,169.01 3241.90,211.60,169.06"/>
        <lane id=":31#2_0_2" index="2" disallow="pedestrian tram rail_urban rail rail_electric rail_fast ship" speed="27.78" length="3.95" width="3.76" shape="3236.86,213.71,169.01 3240.57,215.05,169.06"/>
        <lane id=":31#2_0_3" index="3" disallow="pedestrian tram rail_urban rail rail_electric rail_fast ship" speed="27.78" length="3.95" width="3.63" shape="3235.55,217.14,169.01 3239.25,218.50,169.06"/>
        <lane id=":31#2_0_4" index="4" disallow="pedestrian tram rail_urban rail rail_electric rail_fast ship" speed="27.78" length="3.95" width="3.65" shape="3234.27,220.53,169.01 3237.94,221.90,169.06"/>
    </edge>
    <edge id=":33#1_0" function="internal">
        <lane id=":33#1_0_0" index="0" disallow="pedestrian tram rail_urban rail rail_electric rail_fast ship" speed="27.78" length="8.02" width="3.64" shape="1509.47,33.11,173.01 1501.45,33.04,173.07"/>
        <lane id=":33#1_0_1" index="1" disallow="pedestrian tram rail_urban rail rail_electric rail_fast ship" speed="27.78" length="8.02" width="3.53" shape="1509.50,29.54,173.01 1501.48,29.45,173.07"/>
        <lane id=":33#1_0_2" index="2" disallow="pedestrian tram rail_urban rail rail_electric rail_fast ship" speed="27.78" length="8.02" width="3.64" shape="1509.54,25.96,173.01 1501.52,25.87,173.07"/>
    </edge>
    <edge id=":35#1_0" function="internal">
        <lane id=":35#1_0_0" index="0" disallow="pedestrian tram rail_urban rail rail_electric rail_fast ship" speed="27.78" length="3.23" width="3.00" shape="3635.33,414.99,174.83 3634.31,414.84,174.82 3633.54,415.18,174.81 3632.77,415.51,174.79 3631.76,415.36,174.78"/>
        <lane id=":35#1_0_1" index="1" disallow="pedestrian tram rail_urban rail rail_electric rail_fast ship" speed="27.78" length="3.23" width="3.87" shape="3636.37,412.67,174.83 3635.45,412.42,174.82 3634.77,412.45,174.81 3634.09,412.49,174.79 3633.18,412.23,174.78"/>
        <lane id=":35#1_0_2" index="2" disallow="pedestrian tram rail_urban rail rail_electric rail_fast ship" speed="27.78" length="3.23" width="3.83" shape="3637.54,410.04,174.83 3634.77,408.72,174.78"/>
        <lane id=":35#1_0_3" index="3" disallow="pedestrian tram rail_urban rail rail_electric rail_fast ship" speed="27.78" length="3.23" width="3.55" shape="3639.07,406.62,174.83 3636.29,405.36,174.78"/>
        <lane id=":35#1_0_4" index="4" disallow="pedestrian tram rail_urban rail rail_electric rail_fast ship" speed="27.78" length="3.23" width="3.62" shape="3640.53,403.36,174.83 3637.78,402.10,174.78"/>
    </edge>
    <edge id=":35.2_0" function="internal">
        <lane id=":35.2_0_0" index="0" disallow="pedestrian tram rail_urban rail rail_electric rail_fast ship" speed="27.78" length="8.76" width="2.70" shape="3600.18,401.02,174.19 3597.87,400.22,174.15 3596.18,400.02,174.13 3594.48,399.82,174.10 3592.18,399.02,174.06"/>
        <lane id=":35.2_0_1" index="1" disallow="pedestrian tram rail_urban rail rail_electric rail_fast ship" speed="27.78" length="8.76" width="1.80" shape="3601.61,397.90,174.19 3599.19,397.25,174.16 3597.36,397.43,174.13 3595.54,397.62,174.10 3593.11,396.98,174.06"/>
        <lane id=":35.2_0_2" index="2" disallow="pedestrian tram rail_urban rail rail_electric rail_fast ship" speed="27.78" length="8.76" width="3.87" shape="3603.22,394.40,174.19 3600.68,393.87,174.16 3598.76,394.39,174.13 3596.83,394.92,174.10 3594.29,394.40,174.06"/>
        <lane id=":35.2_0_3" index="3" disallow="pedestrian tram rail_urban rail rail_electric rail_fast ship" speed="27.78" length="8.76" width="3.67" shape="3604.76,391.05,174.19 3602.23,390.51,174.16 3600.31,391.00,174.13 3598.39,391.50,174.10 3595.85,390.97,174.06"/>
        <lane id=":35.2_0_4" index="4" disallow="pedestrian tram rail_urban rail rail_electric rail_fast ship" speed="27.78" length="8.76" width="3.55" shape="3606.26,387.79,174.20 3603.73,387.25,174.16 3601.81,387.73,174.13 3599.88,388.22,174.10 3597.35,387.68,174.06"/>
        <lane id=":35.2_0_5" index="5" disallow="pedestrian tram rail_urban rail rail_electric rail_fast ship" speed="27.78" length="8.76" width="3.62" shape="3606.26,387.79,174.20 3598.84,384.42,174.06"/>
    </edge>
    <edge id=":35.26_0" function="internal">
        <lane id=":35.26_0_0" index="0" allow="emergency authority" speed="27.78" length="8.22" width="3.27" shape="3670.41,428.83,175.38 3668.07,428.09,175.34 3666.33,428.00,175.32 3664.58,427.93,175.29 3662.24,427.19,175.25"/>
        <lane id=":35.26_0_1" index="1" disallow="pedestrian tram rail_urban rail rail_electric rail_fast ship" speed="27.78" length="8.22" width="3.97" shape="3671.94,425.48,175.38 3664.47,422.25,175.25"/>
        <lane id=":35.26_0_2" index="2" disallow="pedestrian tram rail_urban rail rail_electric rail_fast ship" speed="27.78" length="8.22" width="3.52" shape="3673.45,422.16,175.38 3666.01,418.84,175.25"/>
        <lane id=":35.26_0_3" index="3" disallow="pedestrian tram rail_urban rail rail_electric rail_fast ship" speed="27.78" length="8.22" width="3.63" shape="3674.92,418.94,175.38 3667.48,415.58,175.25"/>
    </edge>
    <edge id=":37#1_0" function="internal">
        <lane id=":37#1_0_0" index="0" disallow="pedestrian tram rail_urban rail rail_electric rail_fast ship" speed="27.78" length="8.00" width="3.56" shape="1676.31,12.85,171.63 1684.31,13.08,171.58"/>
        <lane id=":37#1_0_1" index="1" disallow="pedestrian tram rail_urban rail rail_electric rail_fast ship" speed="27.78" length="8.00" width="3.54" shape="1676.27,16.41,171.63 1684.27,16.63,171.58"/>
        <lane id=":37#1_0_2" index="2" disallow="pedestrian tram rail_urban rail rail_electric rail_fast ship" speed="27.78" length="8.00" width="3.29" shape="1676.24,19.89,171.63 1684.24,20.05,171.58"/>
    </edge>
    <edge id=":37#2_0" function="internal">
        <lane id=":37#2_0_0" index="0" disallow="pedestrian tram rail_urban rail rail_electric rail_fast ship" speed="27.78" length="8.03" width="3.87" shape="2458.43,35.91,167.47 2466.49,36.11,167.50"/>
        <lane id=":37#2_0_1" index="1" disallow="pedestrian tram rail_urban rail rail_electric rail_fast ship" speed="27.78" length="8.03" width="3.61" shape="2458.11,39.45,167.47 2466.14,39.84,167.50"/>
        <lane id=":37#2_0_2" index="2" disallow="pedestrian tram rail_urban rail rail_electric rail_fast ship" speed="27.78" length="8.03" width="3.61" shape="2457.81,42.85,167.47 2465.79,43.43,167.50"/>
    </edge>
    <edge id=":4#1_0" function="internal">
        <lane id=":4#1_0_0" index="0" disallow="pedestrian tram rail_urban rail rail_electric rail_fast ship" speed="27.78" length="3.22" width="3.79" shape="2567.82,75.41,167.29 2564.95,77.23,167.29"/>
        <lane id=":4#1_0_1" index="1" disallow="pedestrian tram rail_urban rail rail_electric rail_fast ship" speed="27.78" length="3.22" width="3.58" shape="2568.13,72.95,167.29 2567.25,72.98,167.29 2566.66,73.22,167.29 2566.07,73.47,167.29 2565.19,73.55,167.29"/>
    </edge>
    <edge id=":40.22_0" function="internal">
        <lane id=":40.22_0_0" index="0" disallow="pedestrian tram rail_urban rail rail_electric rail_fast ship" speed="27.78" length="3.00" width="3.68" shape="2696.10,93.15,167.52 2693.13,92.56,167.52"/>
        <lane id=":40.22_0_1" index="1" disallow="pedestrian tram rail_urban rail rail_electric rail_fast ship" speed="27.78" length="3.00" width="3.58" shape="2696.70,89.58,167.52 2693.75,88.98,167.52"/>
        <lane id=":40.22_0_2" index="2" disallow="pedestrian tram rail_urban rail rail_electric rail_fast ship" speed="27.78" length="3.00" width="3.49" shape="2697.29,86.04,167.52 2694.35,85.49,167.52"/>
        <lane id=":40.22_0_3" index="3" disallow="pedestrian tram rail_urban rail rail_electric rail_fast ship" speed="27.78" length="3.00" width="3.62" shape="2697.88,82.51,167.52 2694.95,81.99,167.52"/>
    </edge>
    <edge id=":41_0" function="internal">
        <lane id=":41_0_0" index="0" disallow="pedestrian tram rail_urban rail rail_electric rail_fast ship" speed="27.78" length="10.01" width="3.54" shape="2995.72,165.42,167.93 2986.11,162.66,167.59"/>
    </edge>
    <edge id=":41_1" function="internal">
        <lane id=":41_1_0" index="0" disallow="pedestrian tram rail_urban rail rail_electric rail_fast ship" speed="27.78" length="10.01" width="3.58" shape="2996.69,162.03,167.93 2987.02,159.36,167.91"/>
        <lane id=":41_1_1" index="1" disallow="pedestrian tram rail_urban rail rail_electric rail_fast ship" speed="27.78" length="10.01" width="3.67" shape="2997.66,158.60,167.93 2988.02,155.88,167.91"/>
        <lane id=":41_1_2" index="2" disallow="pedestrian tram rail_urban rail rail_electric rail_fast ship" speed="27.78" length="10.01" width="3.50" shape="2998.64,155.16,167.93 2989.01,152.43,167.91"/>
        <lane id=":41_1_3" index="3" disallow="pedestrian tram rail_urban rail rail_electric rail_fast ship" speed="27.78" length="10.01" width="3.66" shape="2999.62,151.72,167.93 2990.00,148.99,167.91"/>
    </edge>
    <edge id=":44_0" function="internal">
        <lane id=":44_0_0" index="0" disallow="pedestrian tram rail_urban rail rail_electric rail_fast ship" speed="27.78" length="10.13" width="3.16" shape="2580.81,75.49,167.49 2577.82,75.36,167.43 2575.76,75.62,167.39 2573.70,75.89,167.35 2570.72,75.77,167.29"/>
    </edge>
    <edge id=":44_1" function="internal">
        <lane id=":44_1_0" index="0" disallow="pedestrian tram rail_urban rail rail_electric rail_fast ship" speed="27.78" length="10.03" width="3.63" shape="2581.26,71.89,167.49 2571.28,70.63,167.51"/>